19
Created with MDTraj 1.9.2, 2019-03-26
O1   37.109   48.526   33.407
C1   38.274   48.286   33.580
O2   39.002   48.416   32.588
C2   38.766   47.581   34.838
C3   39.955   46.649   34.615
C4   39.503   45.383   33.881
C5   38.936   44.378   34.532
C6   39.854   45.316   32.396
O3   40.273   46.278   31.783
H1   38.735   43.384   34.141
H2   38.743   44.439   35.600
C7   39.947   43.881   31.774
H3   40.403   43.890   30.782
H4   40.458   43.112   32.357
H5   38.908   43.587   31.613
H6   40.266   46.318   35.608
H7   40.812   47.134   34.144
H8   38.975   48.326   35.608
H9   37.935   47.020   35.270
