19
Created with MDTraj 1.9.2, 2019-03-26
O1   37.214   48.154   33.114
C1   38.382   48.179   33.426
O2   39.214   48.569   32.573
C2   38.704   47.469   34.719
C3   39.952   46.601   34.696
C4   39.760   45.331   33.936
C5   39.168   44.323   34.614
C6   40.099   45.296   32.486
O3   40.471   46.228   31.850
H1   38.846   43.341   34.279
H2   38.847   44.500   35.638
C7   39.708   44.055   31.729
H3   40.169   43.997   30.740
H4   40.015   43.252   32.401
H5   38.627   43.935   31.631
H6   40.229   46.402   35.734
H7   40.733   47.259   34.310
H8   38.891   48.101   35.590
H9   37.824   46.914   35.049
