19
Created with MDTraj 1.9.2, 2019-03-26
O1   37.357   48.513   32.959
C1   38.434   48.329   33.402
O2   39.412   48.524   32.706
C2   38.632   47.657   34.740
C3   39.718   46.565   34.777
C4   39.514   45.268   33.950
C5   38.897   44.232   34.515
C6   40.062   45.252   32.529
O3   40.412   46.230   31.917
H1   38.671   43.285   34.032
H2   38.649   44.223   35.574
C7   39.945   43.896   31.726
H3   40.552   43.213   32.325
H4   38.906   43.561   31.717
H5   40.154   44.097   30.673
H6   39.991   46.286   35.797
H7   40.679   46.997   34.490
H8   39.125   48.395   35.377
H9   37.743   47.384   35.312
