19
Created with MDTraj 1.9.2, 2019-03-26
O1   37.338   48.420   33.065
C1   38.513   48.278   33.375
O2   39.502   48.806   32.786
C2   38.718   47.635   34.680
C3   39.842   46.577   34.737
C4   39.512   45.238   33.954
C5   38.831   44.161   34.592
C6   40.012   45.252   32.557
O3   40.436   46.305   31.992
H1   38.542   43.221   34.128
H2   38.379   44.301   35.571
C7   39.928   43.990   31.772
H3   40.236   43.206   32.466
H4   38.886   43.837   31.483
H5   40.565   43.802   30.906
H6   40.149   46.291   35.745
H7   40.702   47.054   34.263
H8   38.922   48.431   35.399
H9   37.840   47.100   35.046
