19
Created with MDTraj 1.9.2, 2019-03-26
O1   37.192   48.282   33.113
C1   38.367   48.111   33.448
O2   39.301   48.346   32.719
C2   38.715   47.553   34.764
C3   39.916   46.620   34.699
C4   39.543   45.374   33.974
C5   38.960   44.320   34.592
C6   40.074   45.276   32.517
O3   40.723   46.200   31.973
H1   38.714   43.356   34.155
H2   38.768   44.385   35.660
C7   39.776   44.041   31.746
H3   38.699   43.880   31.655
H4   40.168   44.086   30.727
H5   40.256   43.172   32.201
H6   40.213   46.477   35.740
H7   40.817   47.039   34.248
H8   38.855   48.339   35.509
H9   37.799   47.048   35.076
