19
Created with MDTraj 1.9.2, 2019-03-26
O1   37.311   48.609   33.353
C1   38.444   48.256   33.553
O2   39.254   48.414   32.681
C2   38.743   47.560   34.809
C3   39.912   46.620   34.677
C4   39.519   45.398   33.883
C5   38.727   44.446   34.399
C6   40.125   45.262   32.485
O3   40.701   46.152   31.900
H1   38.408   43.547   33.878
H2   38.281   44.528   35.387
C7   39.986   43.922   31.898
H3   40.191   43.121   32.612
H4   38.990   43.666   31.531
H5   40.650   43.753   31.048
H6   40.265   46.182   35.613
H7   40.661   47.224   34.160
H8   38.823   48.293   35.615
H9   37.863   46.954   35.033
