19
Created with MDTraj 1.9.2, 2019-03-26
O1   37.106   48.090   33.126
C1   38.319   48.110   33.349
O2   39.129   48.483   32.514
C2   38.717   47.668   34.759
C3   39.836   46.588   34.828
C4   39.638   45.329   34.016
C5   39.241   44.198   34.610
C6   40.068   45.296   32.566
O3   40.572   46.247   31.976
H1   39.207   43.215   34.148
H2   38.846   44.269   35.621
C7   39.705   44.049   31.726
H3   39.890   44.216   30.663
H4   40.183   43.145   32.110
H5   38.637   43.847   31.624
H6   40.082   46.216   35.824
H7   40.687   47.133   34.413
H8   39.125   48.516   35.314
H9   37.866   47.291   35.329
