19
Created with MDTraj 1.9.2, 2019-03-26
O1   37.080   48.043   33.162
C1   38.246   48.125   33.463
O2   39.070   48.436   32.640
C2   38.721   47.650   34.812
C3   39.897   46.573   34.671
C4   39.588   45.379   33.938
C5   39.053   44.339   34.578
C6   39.973   45.340   32.472
O3   40.400   46.284   31.861
H1   38.970   43.351   34.132
H2   38.671   44.321   35.596
C7   39.825   44.012   31.774
H3   39.964   44.217   30.711
H4   40.449   43.229   32.213
H5   38.775   43.718   31.837
H6   40.259   46.255   35.650
H7   40.780   47.065   34.258
H8   39.194   48.448   35.387
H9   37.939   47.121   35.362
