19
Created with MDTraj 1.9.2, 2019-03-26
O1   36.919   47.976   33.425
C1   38.125   48.079   33.498
O2   38.832   48.342   32.527
C2   38.854   47.723   34.883
C3   39.903   46.562   34.765
C4   39.542   45.354   33.945
C5   38.959   44.261   34.519
C6   40.028   45.323   32.486
O3   40.439   46.257   31.854
H1   38.670   43.380   33.952
H2   38.720   44.272   35.579
C7   39.930   43.958   31.710
H3   40.194   44.148   30.667
H4   40.522   43.182   32.200
H5   38.878   43.664   31.712
H6   40.085   46.181   35.772
H7   40.802   47.043   34.375
H8   39.418   48.640   35.063
H9   38.033   47.560   35.585
