19
Created with MDTraj 1.9.2, 2019-03-26
O1   37.147   47.911   33.072
C1   38.309   48.071   33.373
O2   39.169   48.431   32.606
C2   38.760   47.632   34.757
C3   39.939   46.550   34.793
C4   39.634   45.323   33.950
C5   38.985   44.282   34.601
C6   40.058   45.299   32.524
O3   40.674   46.215   31.964
H1   38.846   43.326   34.103
H2   38.557   44.436   35.588
C7   39.761   44.060   31.736
H3   38.684   43.922   31.622
H4   40.229   44.223   30.763
H5   40.111   43.160   32.246
H6   40.181   46.289   35.826
H7   40.828   47.077   34.439
H8   39.104   48.501   35.322
H9   37.878   47.197   35.232
