19
Created with MDTraj 1.9.2, 2019-03-26
O1   36.983   48.446   33.546
C1   38.203   48.195   33.590
O2   38.899   48.383   32.604
C2   38.785   47.618   34.870
C3   39.929   46.654   34.591
C4   39.470   45.401   33.765
C5   38.907   44.366   34.459
C6   39.822   45.264   32.347
O3   40.135   46.171   31.663
H1   38.529   43.415   34.093
H2   38.783   44.525   35.528
C7   40.020   43.914   31.834
H3   40.367   44.060   30.809
H4   40.700   43.370   32.493
H5   39.070   43.375   31.821
H6   40.249   46.168   35.515
H7   40.854   47.043   34.159
H8   39.199   48.426   35.477
H9   37.948   47.110   35.351
