19
Created with MDTraj 1.9.2, 2019-03-26
O1   37.224   48.085   33.033
C1   38.383   48.183   33.426
O2   39.228   48.564   32.638
C2   38.719   47.576   34.751
C3   39.888   46.597   34.724
C4   39.604   45.317   33.967
C5   39.024   44.262   34.526
C6   40.112   45.293   32.564
O3   40.679   46.256   32.097
H1   38.806   43.299   34.072
H2   38.637   44.348   35.538
C7   39.814   44.033   31.813
H3   38.724   43.961   31.844
H4   40.039   44.087   30.746
H5   40.215   43.085   32.179
H6   40.184   46.326   35.739
H7   40.699   47.160   34.256
H8   39.012   48.402   35.403
H9   37.861   47.071   35.201
