19
Created with MDTraj 1.9.2, 2019-03-26
O1   37.116   48.076   33.068
C1   38.304   48.171   33.411
O2   39.130   48.697   32.655
C2   38.770   47.504   34.754
C3   39.989   46.576   34.668
C4   39.583   45.311   33.981
C5   39.008   44.261   34.658
C6   39.839   45.316   32.517
O3   40.201   46.330   31.907
H1   38.663   43.397   34.096
H2   38.761   44.251   35.717
C7   39.855   44.061   31.765
H3   40.327   44.132   30.782
H4   40.287   43.287   32.403
H5   38.821   43.729   31.648
H6   40.351   46.400   35.683
H7   40.841   47.037   34.163
H8   39.050   48.370   35.359
H9   37.958   46.998   35.280
