19
Created with MDTraj 1.9.2, 2019-03-26
O1   37.094   47.918   33.138
C1   38.262   48.139   33.504
O2   39.093   48.652   32.762
C2   38.767   47.624   34.846
C3   39.911   46.585   34.647
C4   39.474   45.436   33.869
C5   38.885   44.391   34.574
C6   39.903   45.293   32.413
O3   40.328   46.257   31.794
H1   38.543   43.486   34.078
H2   38.592   44.576   35.604
C7   39.953   43.951   31.710
H3   38.936   43.765   31.358
H4   40.640   43.875   30.865
H5   40.145   43.294   32.561
H6   40.246   46.244   35.628
H7   40.902   46.888   34.305
H8   39.189   48.430   35.450
H9   37.992   47.102   35.409
