19
Created with MDTraj 1.9.2, 2019-03-26
O1   37.113   48.617   33.455
C1   38.307   48.273   33.507
O2   39.060   48.408   32.537
C2   38.835   47.691   34.828
C3   39.811   46.528   34.638
C4   39.354   45.334   33.841
C5   38.711   44.358   34.398
C6   39.960   45.267   32.496
O3   40.512   46.268   31.971
H1   38.404   43.472   33.848
H2   38.373   44.405   35.430
C7   40.120   43.863   31.830
H3   40.639   43.192   32.518
H4   39.115   43.472   31.659
H5   40.577   43.901   30.839
H6   39.977   46.076   35.618
H7   40.833   46.841   34.412
H8   39.216   48.581   35.334
H9   37.938   47.360   35.356
