19
Created with MDTraj 1.9.2, 2019-03-26
O1   37.111   47.989   33.265
C1   38.262   48.137   33.489
O2   39.027   48.572   32.642
C2   38.853   47.583   34.850
C3   39.918   46.520   34.677
C4   39.501   45.340   33.811
C5   38.604   44.469   34.311
C6   40.047   45.292   32.429
O3   40.521   46.279   31.862
H1   38.171   43.659   33.728
H2   38.129   44.632   35.275
C7   40.107   43.873   31.898
H3   40.582   43.210   32.624
H4   39.104   43.494   31.688
H5   40.568   43.888   30.909
H6   40.073   46.203   35.711
H7   40.847   47.034   34.422
H8   39.375   48.389   35.370
H9   38.053   47.346   35.555
