19
Created with MDTraj 1.9.2, 2019-03-26
O1   37.231   48.747   33.298
C1   38.335   48.268   33.468
O2   39.126   48.333   32.540
C2   38.679   47.551   34.807
C3   39.773   46.504   34.752
C4   39.461   45.310   33.898
C5   38.776   44.297   34.525
C6   39.993   45.246   32.518
O3   40.477   46.224   31.917
H1   38.452   43.397   34.008
H2   38.393   44.479   35.526
C7   40.030   43.931   31.778
H3   40.841   43.289   32.126
H4   39.043   43.468   31.840
H5   40.375   43.981   30.743
H6   40.069   46.168   35.748
H7   40.626   47.034   34.324
H8   39.320   48.338   35.210
H9   37.855   47.340   35.491
