19
Created with MDTraj 1.9.2, 2019-03-26
O1   37.091   48.077   33.250
C1   38.251   48.050   33.478
O2   39.042   48.316   32.602
C2   38.725   47.584   34.861
C3   39.899   46.590   34.668
C4   39.468   45.372   33.856
C5   38.944   44.358   34.575
C6   39.964   45.289   32.531
O3   40.473   46.265   31.957
H1   38.623   43.451   34.068
H2   38.733   44.440   35.638
C7   39.887   44.002   31.714
H3   40.402   44.030   30.752
H4   40.291   43.119   32.213
H5   38.830   43.806   31.521
H6   40.356   46.311   35.620
H7   40.794   47.116   34.332
H8   39.096   48.510   35.304
H9   37.983   47.220   35.575
