19
Created with MDTraj 1.9.2, 2019-03-26
O1   37.162   48.096   33.139
C1   38.344   48.181   33.457
O2   39.110   48.547   32.586
C2   38.829   47.625   34.795
C3   39.917   46.549   34.728
C4   39.482   45.312   33.961
C5   38.853   44.269   34.554
C6   39.878   45.277   32.492
O3   40.347   46.272   31.942
H1   38.570   43.379   33.998
H2   38.645   44.389   35.614
C7   39.914   43.974   31.728
H3   38.875   43.661   31.604
H4   40.351   44.078   30.733
H5   40.480   43.268   32.339
H6   40.095   46.320   35.780
H7   40.831   46.972   34.304
H8   39.166   48.494   35.364
H9   38.003   47.242   35.398
