19
Created with MDTraj 1.9.2, 2019-03-26
O1   37.097   48.009   33.126
C1   38.291   48.115   33.422
O2   39.162   48.518   32.637
C2   38.747   47.574   34.738
C3   39.915   46.549   34.713
C4   39.636   45.292   33.978
C5   38.895   44.386   34.687
C6   40.073   45.284   32.498
O3   40.769   46.163   31.996
H1   38.545   43.525   34.123
H2   38.613   44.438   35.735
C7   39.781   44.051   31.669
H3   38.736   43.737   31.620
H4   40.287   44.123   30.704
H5   40.303   43.211   32.132
H6   40.237   46.397   35.745
H7   40.824   47.042   34.360
H8   39.043   48.393   35.398
H9   37.900   47.097   35.236
