19
Created with MDTraj 1.9.2, 2019-03-26
O1   37.214   47.933   32.921
C1   38.371   48.044   33.357
O2   39.304   48.321   32.610
C2   38.752   47.569   34.759
C3   39.921   46.555   34.848
C4   39.540   45.371   34.009
C5   38.826   44.395   34.520
C6   40.163   45.249   32.628
O3   40.797   46.143   32.083
H1   38.543   43.481   34.005
H2   38.480   44.492   35.546
C7   39.794   44.070   31.784
H3   40.500   43.246   31.907
H4   38.777   43.683   31.868
H5   39.909   44.358   30.737
H6   40.164   46.318   35.886
H7   40.839   47.002   34.461
H8   39.125   48.425   35.326
H9   37.836   47.252   35.262
