19
Created with MDTraj 1.9.2, 2019-03-26
O1   37.235   48.049   33.197
C1   38.377   48.168   33.458
O2   39.171   48.556   32.574
C2   38.852   47.602   34.803
C3   39.973   46.532   34.682
C4   39.364   45.395   33.870
C5   38.524   44.507   34.406
C6   40.009   45.266   32.499
O3   40.513   46.252   31.899
H1   38.210   43.611   33.875
H2   38.226   44.465   35.451
C7   40.011   43.911   31.874
H3   40.290   43.179   32.635
H4   39.060   43.719   31.373
H5   40.791   44.029   31.119
H6   40.188   46.210   35.703
H7   40.929   46.958   34.370
H8   39.106   48.435   35.462
H9   38.025   47.060   35.267
