19
Created with MDTraj 1.9.2, 2019-03-26
O1   37.124   47.716   33.225
C1   38.272   47.990   33.469
O2   38.943   48.266   32.522
C2   38.836   47.600   34.832
C3   39.985   46.473   34.841
C4   39.582   45.382   33.880
C5   38.608   44.575   34.381
C6   40.095   45.325   32.522
O3   40.651   46.249   31.931
H1   38.244   43.699   33.850
H2   38.231   44.836   35.366
C7   39.992   43.962   31.822
H3   40.853   43.325   32.033
H4   39.046   43.489   32.095
H5   39.984   44.170   30.750
H6   40.207   46.062   35.829
H7   40.861   46.998   34.455
H8   39.359   48.458   35.257
H9   37.981   47.330   35.456
