19
Created with MDTraj 1.9.2, 2019-03-26
O1   37.180   48.102   33.024
C1   38.377   48.021   33.320
O2   39.310   48.257   32.563
C2   38.790   47.612   34.774
C3   39.931   46.561   34.798
C4   39.600   45.262   34.073
C5   38.844   44.346   34.597
C6   40.123   45.193   32.654
O3   40.712   46.172   32.117
H1   38.413   43.494   34.079
H2   38.414   44.470   35.588
C7   39.905   44.074   31.711
H3   40.318   43.170   32.164
H4   38.820   43.981   31.630
H5   40.195   44.215   30.668
H6   40.005   46.270   35.848
H7   40.909   46.964   34.529
H8   39.124   48.568   35.184
H9   37.884   47.172   35.196
