19
Created with MDTraj 1.9.2, 2019-03-26
O1   36.941   47.758   33.430
C1   38.145   47.940   33.534
O2   38.818   48.413   32.594
C2   38.879   47.589   34.811
C3   40.018   46.613   34.725
C4   39.640   45.360   33.941
C5   38.731   44.516   34.584
C6   39.977   45.291   32.509
O3   40.333   46.279   31.854
H1   38.358   43.670   34.012
H2   38.379   44.612   35.608
C7   39.948   43.985   31.674
H3   40.748   44.036   30.932
H4   40.282   43.165   32.313
H5   39.051   43.578   31.202
H6   40.170   46.273   35.751
H7   40.946   47.050   34.350
H8   39.330   48.530   35.133
H9   38.159   47.249   35.559
