19
Created with MDTraj 1.9.2, 2019-03-26
O1   37.149   47.719   33.239
C1   38.269   48.055   33.518
O2   38.954   48.537   32.606
C2   38.923   47.664   34.840
C3   39.962   46.530   34.756
C4   39.481   45.391   33.906
C5   38.657   44.421   34.467
C6   39.919   45.329   32.455
O3   40.331   46.341   31.911
H1   38.233   43.587   33.915
H2   38.292   44.481   35.489
C7   39.981   43.928   31.782
H3   39.021   43.413   31.698
H4   40.301   44.039   30.743
H5   40.770   43.351   32.269
H6   40.219   46.249   35.779
H7   40.845   47.029   34.351
H8   39.392   48.550   35.274
H9   38.153   47.291   35.518
