19
Created with MDTraj 1.9.2, 2019-03-26
O1   37.225   47.989   32.904
C1   38.383   47.977   33.233
O2   39.274   48.427   32.483
C2   38.711   47.567   34.693
C3   39.920   46.605   34.846
C4   39.587   45.368   33.998
C5   38.941   44.399   34.653
C6   39.959   45.348   32.554
O3   40.523   46.249   31.972
H1   38.579   43.497   34.168
H2   38.825   44.440   35.733
C7   39.715   44.115   31.747
H3   38.682   43.763   31.761
H4   40.086   44.300   30.737
H5   40.411   43.317   32.016
H6   40.102   46.270   35.869
H7   40.924   46.954   34.594
H8   39.031   48.376   35.353
H9   37.974   46.944   35.203
