19
Created with MDTraj 1.9.2, 2019-03-26
O1   37.200   48.316   33.178
C1   38.383   48.142   33.394
O2   39.235   48.558   32.622
C2   38.743   47.553   34.785
C3   39.981   46.585   34.736
C4   39.594   45.318   33.945
C5   38.870   44.392   34.551
C6   40.016   45.236   32.513
O3   40.528   46.190   31.981
H1   38.723   43.434   34.058
H2   38.462   44.476   35.555
C7   39.884   43.951   31.809
H3   38.832   43.659   31.842
H4   39.992   44.157   30.742
H5   40.519   43.124   32.134
H6   40.352   46.388   35.745
H7   40.803   47.129   34.268
H8   38.851   48.332   35.543
H9   37.885   46.965   35.115
