19
Created with MDTraj 1.9.2, 2019-03-26
O1   36.949   47.755   33.521
C1   38.134   48.009   33.505
O2   38.728   48.418   32.540
C2   38.881   47.641   34.762
C3   39.962   46.567   34.677
C4   39.538   45.355   33.906
C5   38.833   44.401   34.520
C6   39.829   45.288   32.449
O3   40.213   46.250   31.824
H1   38.411   43.590   33.931
H2   38.623   44.305   35.582
C7   39.942   43.974   31.761
H3   40.057   44.176   30.694
H4   40.887   43.603   32.164
H5   39.112   43.314   32.021
H6   40.236   46.163   35.653
H7   40.886   47.063   34.371
H8   39.427   48.548   35.030
H9   38.205   47.485   35.605
