19
Created with MDTraj 1.9.2, 2019-03-26
O1   37.070   47.912   33.278
C1   38.250   48.100   33.483
O2   38.865   48.599   32.561
C2   38.818   47.605   34.834
C3   39.943   46.579   34.735
C4   39.551   45.351   33.896
C5   38.867   44.278   34.502
C6   40.014   45.289   32.454
O3   40.425   46.279   31.892
H1   38.615   43.409   33.900
H2   38.666   44.302   35.570
C7   39.920   43.957   31.783
H3   40.476   43.983   30.843
H4   40.197   43.113   32.418
H5   38.858   43.847   31.557
H6   40.231   46.222   35.726
H7   40.738   47.209   34.331
H8   39.315   48.505   35.202
H9   38.033   47.367   35.554
