19
Created with MDTraj 1.9.2, 2019-03-26
O1   37.319   47.890   32.953
C1   38.425   48.113   33.429
O2   39.304   48.531   32.770
C2   38.801   47.673   34.810
C3   39.922   46.575   34.792
C4   39.607   45.294   34.006
C5   38.791   44.399   34.546
C6   40.027   45.277   32.496
O3   40.416   46.323   31.945
H1   38.342   43.639   33.912
H2   38.345   44.452   35.536
C7   39.924   43.942   31.727
H3   40.300   43.101   32.314
H4   38.892   43.701   31.463
H5   40.515   43.927   30.809
H6   40.032   46.307   35.845
H7   40.926   46.954   34.591
H8   39.073   48.582   35.351
H9   37.894   47.223   35.219
