19
Created with MDTraj 1.9.2, 2019-03-26
O1   37.092   48.015   33.244
C1   38.265   48.117   33.447
O2   39.029   48.428   32.555
C2   38.705   47.512   34.816
C3   40.002   46.597   34.713
C4   39.725   45.289   33.928
C5   39.026   44.375   34.580
C6   40.037   45.286   32.514
O3   40.485   46.255   31.888
H1   38.710   43.406   34.201
H2   38.751   44.616   35.604
C7   39.798   44.035   31.740
H3   39.952   44.323   30.698
H4   40.467   43.186   31.894
H5   38.810   43.639   31.986
H6   40.374   46.288   35.692
H7   40.748   47.196   34.187
H8   39.039   48.274   35.523
H9   37.838   47.066   35.308
