19
Created with MDTraj 1.9.2, 2019-03-26
O1   37.054   47.745   33.173
C1   38.246   47.962   33.397
O2   38.974   48.501   32.573
C2   38.768   47.546   34.717
C3   39.915   46.617   34.694
C4   39.674   45.320   33.965
C5   39.070   44.352   34.669
C6   40.007   45.326   32.513
O3   40.528   46.341   31.931
H1   38.788   43.363   34.314
H2   38.710   44.490   35.686
C7   39.756   44.075   31.646
H3   39.663   44.353   30.594
H4   40.607   43.423   31.852
H5   38.844   43.574   31.974
H6   40.104   46.361   35.739
H7   40.893   47.006   34.405
H8   39.244   48.364   35.261
H9   38.008   47.186   35.413
