19
Created with MDTraj 1.9.2, 2019-03-26
O1   37.321   47.949   32.949
C1   38.458   48.079   33.282
O2   39.323   48.460   32.559
C2   38.782   47.624   34.669
C3   39.876   46.581   34.821
C4   39.547   45.331   33.989
C5   38.801   44.386   34.642
C6   40.076   45.251   32.529
O3   40.681   46.234   32.067
H1   38.520   43.459   34.148
H2   38.470   44.507   35.670
C7   39.806   44.029   31.681
H3   40.171   43.211   32.306
H4   38.757   44.002   31.381
H5   40.472   44.032   30.816
H6   39.927   46.190   35.839
H7   40.896   46.948   34.688
H8   39.071   48.438   35.337
H9   37.898   47.192   35.144
