19
Created with MDTraj 1.9.2, 2019-03-26
O1   37.217   47.803   32.991
C1   38.378   48.071   33.390
O2   39.220   48.555   32.695
C2   38.738   47.549   34.752
C3   39.960   46.649   34.670
C4   39.637   45.374   33.956
C5   39.143   44.353   34.653
C6   39.946   45.342   32.480
O3   40.558   46.282   32.051
H1   38.905   43.420   34.147
H2   38.950   44.381   35.722
C7   39.656   44.038   31.732
H3   39.986   44.110   30.694
H4   40.147   43.206   32.242
H5   38.566   43.977   31.723
H6   40.193   46.304   35.679
H7   40.841   47.213   34.357
H8   38.945   48.307   35.510
H9   37.868   46.972   35.072
