19
Created with MDTraj 1.9.2, 2019-03-26
O1   37.911   47.507   32.427
C1   38.594   48.089   33.259
O2   39.530   48.765   32.843
C2   38.642   47.607   34.703
C3   39.809   46.537   34.815
C4   39.591   45.277   34.027
C5   39.151   44.188   34.742
C6   40.073   45.348   32.606
O3   40.655   46.315   32.171
H1   38.929   43.246   34.247
H2   38.648   44.313   35.698
C7   39.557   44.136   31.806
H3   39.981   43.161   32.058
H4   38.485   44.245   31.630
H5   40.026   44.216   30.823
H6   39.947   46.283   35.868
H7   40.796   46.927   34.556
H8   38.903   48.472   35.315
H9   37.626   47.272   34.923
