19
Created with MDTraj 1.9.2, 2019-03-26
O1   37.037   47.782   33.336
C1   38.212   48.088   33.442
O2   38.788   48.678   32.615
C2   38.897   47.754   34.766
C3   39.884   46.578   34.717
C4   39.430   45.366   33.875
C5   38.920   44.249   34.469
C6   39.944   45.336   32.442
O3   40.306   46.359   31.898
H1   38.738   43.273   34.028
H2   38.805   44.265   35.550
C7   39.895   43.984   31.723
H3   40.454   44.072   30.788
H4   40.308   43.164   32.314
H5   38.870   43.627   31.605
H6   39.973   46.260   35.757
H7   40.927   46.850   34.541
H8   39.364   48.658   35.162
H9   38.100   47.564   35.488
