19
Created with MDTraj 1.9.2, 2019-03-26
O1   37.168   47.893   33.023
C1   38.293   47.967   33.386
O2   39.152   48.506   32.705
C2   38.732   47.546   34.774
C3   39.959   46.645   34.745
C4   39.641   45.301   33.978
C5   38.906   44.322   34.538
C6   40.178   45.255   32.530
O3   40.721   46.235   32.042
H1   38.677   43.393   34.021
H2   38.698   44.483   35.592
C7   39.766   44.092   31.765
H3   38.679   43.992   31.732
H4   40.173   44.148   30.753
H5   40.080   43.179   32.274
H6   40.200   46.274   35.743
H7   40.878   47.156   34.449
H8   39.070   48.478   35.231
H9   37.883   47.040   35.237
