19
Created with MDTraj 1.9.2, 2019-03-26
O1   37.127   48.042   33.195
C1   38.278   48.147   33.524
O2   39.105   48.628   32.743
C2   38.765   47.591   34.838
C3   39.948   46.581   34.666
C4   39.668   45.321   33.910
C5   39.063   44.312   34.562
C6   39.987   45.333   32.457
O3   40.307   46.333   31.860
H1   38.899   43.348   34.088
H2   38.672   44.440   35.568
C7   39.807   43.943   31.746
H3   39.987   43.974   30.669
H4   40.467   43.177   32.159
H5   38.748   43.743   31.924
H6   40.245   46.399   35.701
H7   40.767   47.111   34.175
H8   39.113   48.407   35.474
H9   37.900   47.074   35.259
