19
Created with MDTraj 1.9.2, 2019-03-26
O1   37.065   47.888   33.148
C1   38.293   48.020   33.309
O2   38.994   48.529   32.473
C2   38.843   47.634   34.696
C3   39.920   46.572   34.770
C4   39.601   45.349   33.987
C5   39.103   44.216   34.611
C6   39.995   45.346   32.582
O3   40.588   46.291   32.115
H1   39.057   43.256   34.102
H2   38.710   44.266   35.623
C7   39.663   44.101   31.723
H3   40.204   44.228   30.782
H4   40.025   43.240   32.289
H5   38.588   43.967   31.583
H6   40.102   46.395   35.832
H7   40.857   47.040   34.462
H8   39.238   48.468   35.280
H9   38.005   47.100   35.149
