19
Created with MDTraj 1.9.2, 2019-03-26
O1   37.115   47.418   33.238
C1   38.224   47.847   33.408
O2   38.985   48.252   32.554
C2   38.820   47.585   34.838
C3   39.962   46.591   34.745
C4   39.651   45.360   34.003
C5   38.784   44.466   34.552
C6   40.201   45.298   32.590
O3   40.622   46.263   32.013
H1   38.362   43.645   33.978
H2   38.450   44.618   35.575
C7   39.885   44.089   31.749
H3   40.540   44.020   30.878
H4   39.875   43.110   32.232
H5   38.896   44.149   31.290
H6   40.328   46.417   35.759
H7   40.812   47.109   34.297
H8   39.280   48.463   35.295
H9   38.060   47.206   35.525
