19
Created with MDTraj 1.9.2, 2019-03-26
O1   37.008   47.700   33.261
C1   38.220   47.974   33.462
O2   38.971   48.422   32.589
C2   38.854   47.663   34.818
C3   39.970   46.608   34.712
C4   39.535   45.375   33.885
C5   38.968   44.341   34.504
C6   39.953   45.312   32.512
O3   40.356   46.233   31.872
H1   38.876   43.354   34.058
H2   38.480   44.328   35.476
C7   39.811   44.040   31.775
H3   40.018   44.215   30.717
H4   40.565   43.403   32.241
H5   38.789   43.671   31.877
H6   40.280   46.142   35.650
H7   40.871   47.106   34.349
H8   39.213   48.627   35.185
H9   38.116   47.390   35.575
