19
Created with MDTraj 1.9.2, 2019-03-26
O1   37.037   47.852   33.386
C1   38.169   48.015   33.517
O2   38.877   48.466   32.568
C2   38.832   47.716   34.819
C3   39.904   46.605   34.722
C4   39.533   45.352   33.906
C5   38.889   44.377   34.494
C6   39.976   45.300   32.470
O3   40.362   46.285   31.844
H1   38.747   43.420   33.999
H2   38.512   44.374   35.514
C7   39.882   43.980   31.747
H3   40.330   43.928   30.752
H4   40.488   43.217   32.239
H5   38.810   43.788   31.668
H6   40.180   46.218   35.706
H7   40.869   47.003   34.403
H8   39.283   48.653   35.152
H9   38.175   47.359   35.614
