19
Created with MDTraj 1.9.2, 2019-03-26
O1   37.347   48.570   32.933
C1   38.496   48.203   33.161
O2   39.448   48.298   32.399
C2   38.757   47.659   34.562
C3   39.767   46.475   34.812
C4   39.607   45.176   34.110
C5   39.108   44.018   34.647
C6   40.082   45.219   32.742
O3   40.794   46.128   32.352
H1   39.309   43.095   34.109
H2   38.703   43.985   35.655
C7   39.633   44.168   31.766
H3   40.009   43.152   31.911
H4   38.548   44.117   31.875
H5   39.910   44.477   30.756
H6   39.672   46.375   35.895
H7   40.732   46.969   34.684
H8   39.094   48.531   35.127
H9   37.837   47.290   35.019
