19
Created with MDTraj 1.9.2, 2019-03-26
O1   37.322   47.426   32.961
C1   38.323   47.942   33.355
O2   39.193   48.452   32.593
C2   38.759   47.712   34.765
C3   39.880   46.605   34.815
C4   39.588   45.377   33.972
C5   38.973   44.319   34.534
C6   40.023   45.338   32.526
O3   40.593   46.270   32.022
H1   38.859   43.379   34.000
H2   38.703   44.178   35.577
C7   39.716   44.092   31.697
H3   38.626   44.089   31.643
H4   40.262   44.124   30.751
H5   39.986   43.180   32.233
H6   40.127   46.392   35.857
H7   40.886   46.980   34.616
H8   39.160   48.604   35.252
H9   37.874   47.447   35.347
