19
Created with MDTraj 1.9.2, 2019-03-26
O1   37.327   48.319   32.942
C1   38.494   48.085   33.187
O2   39.373   48.377   32.429
C2   38.792   47.565   34.581
C3   39.869   46.496   34.870
C4   39.619   45.261   34.042
C5   38.988   44.215   34.663
C6   40.095   45.334   32.609
O3   40.805   46.220   32.166
H1   38.772   43.228   34.263
H2   38.707   44.349   35.704
C7   39.717   44.198   31.722
H3   40.009   43.275   32.227
H4   38.634   44.098   31.621
H5   40.210   44.253   30.749
H6   39.756   46.268   35.931
H7   40.902   46.798   34.680
H8   38.931   48.445   35.213
H9   37.852   47.122   34.918
