19
Created with MDTraj 1.9.2, 2019-03-26
O1   37.123   47.851   33.107
C1   38.290   47.993   33.385
O2   39.059   48.444   32.591
C2   38.802   47.624   34.736
C3   39.919   46.583   34.757
C4   39.570   45.339   33.971
C5   38.894   44.424   34.619
C6   40.112   45.204   32.533
O3   40.676   46.140   32.023
H1   38.564   43.570   34.035
H2   38.631   44.428   35.674
C7   39.819   44.020   31.704
H3   38.736   43.896   31.631
H4   40.240   44.272   30.729
H5   40.312   43.205   32.238
H6   40.196   46.324   35.781
H7   40.866   46.943   34.350
H8   39.092   48.455   35.382
H9   37.954   47.191   35.270
