19
Created with MDTraj 1.9.2, 2019-03-26
O1   37.135   48.392   33.369
C1   38.307   48.194   33.565
O2   39.091   48.376   32.654
C2   38.756   47.610   34.891
C3   39.897   46.588   34.696
C4   39.493   45.374   33.833
C5   38.586   44.461   34.328
C6   40.116   45.237   32.449
O3   40.538   46.243   31.867
H1   38.340   43.543   33.801
H2   38.182   44.712   35.306
C7   40.116   43.839   31.827
H3   40.490   43.094   32.533
H4   39.108   43.485   31.602
H5   40.637   43.798   30.868
H6   40.106   46.135   35.667
H7   40.798   47.102   34.355
H8   39.267   48.416   35.420
H9   37.892   47.307   35.486
