19
Created with MDTraj 1.9.2, 2019-03-26
O1   36.937   47.828   33.371
C1   38.160   47.921   33.465
O2   38.836   48.381   32.572
C2   38.877   47.597   34.777
C3   40.053   46.556   34.682
C4   39.640   45.381   33.911
C5   38.817   44.439   34.503
C6   39.953   45.363   32.439
O3   40.329   46.340   31.816
H1   38.436   43.542   34.022
H2   38.468   44.461   35.532
C7   39.871   44.066   31.804
H3   40.263   44.044   30.785
H4   40.630   43.427   32.262
H5   38.902   43.563   31.836
H6   40.359   46.319   35.703
H7   40.949   46.954   34.202
H8   39.215   48.484   35.316
H9   38.159   47.239   35.518
