19
Created with MDTraj 1.9.2, 2019-03-26
O1   37.005   47.741   33.565
C1   38.172   48.037   33.634
O2   38.774   48.493   32.638
C2   38.867   47.528   34.882
C3   40.017   46.608   34.620
C4   39.519   45.451   33.832
C5   38.686   44.550   34.407
C6   39.932   45.290   32.402
O3   40.376   46.271   31.799
H1   38.218   43.820   33.751
H2   38.358   44.654   35.439
C7   39.996   43.926   31.865
H3   40.699   43.847   31.034
H4   40.494   43.285   32.595
H5   39.024   43.516   31.583
H6   40.450   46.237   35.551
H7   40.811   47.100   34.055
H8   39.240   48.490   35.240
H9   38.216   47.062   35.624
