19
Created with MDTraj 1.9.2, 2019-03-26
O1   37.505   47.556   32.814
C1   38.343   48.191   33.427
O2   39.208   48.776   32.741
C2   38.789   47.689   34.795
C3   39.857   46.561   34.728
C4   39.529   45.318   33.941
C5   38.962   44.251   34.573
C6   39.918   45.296   32.521
O3   40.472   46.284   32.032
H1   38.777   43.285   34.110
H2   38.735   44.359   35.630
C7   39.745   44.030   31.747
H3   38.704   43.718   31.637
H4   40.071   44.169   30.715
H5   40.394   43.310   32.250
H6   39.999   46.321   35.783
H7   40.802   47.001   34.401
H8   39.160   48.504   35.420
H9   37.883   47.286   35.252
