19
Created with MDTraj 1.9.2, 2019-03-26
O1   36.946   47.934   33.590
C1   38.156   48.028   33.550
O2   38.759   48.414   32.540
C2   38.833   47.647   34.879
C3   39.990   46.583   34.613
C4   39.505   45.375   33.854
C5   38.716   44.501   34.475
C6   39.958   45.265   32.441
O3   40.187   46.257   31.772
H1   38.457   43.507   34.120
H2   38.396   44.690   35.496
C7   40.037   43.934   31.779
H3   40.304   44.076   30.730
H4   40.816   43.371   32.298
H5   39.072   43.425   31.743
H6   40.372   46.239   35.577
H7   40.904   46.962   34.151
H8   39.295   48.531   35.323
H9   38.151   47.167   35.584
