19
Created with MDTraj 1.9.2, 2019-03-26
O1   37.227   47.928   33.135
C1   38.382   48.063   33.422
O2   39.163   48.401   32.540
C2   38.843   47.662   34.777
C3   39.916   46.595   34.786
C4   39.550   45.371   33.914
C5   38.678   44.458   34.448
C6   40.096   45.262   32.504
O3   40.654   46.233   32.002
H1   38.310   43.607   33.880
H2   38.317   44.549   35.470
C7   39.914   43.941   31.745
H3   39.836   43.169   32.514
H4   39.064   43.963   31.060
H5   40.820   43.726   31.174
H6   39.964   46.242   35.818
H7   40.903   47.048   34.674
H8   39.159   48.551   35.327
H9   38.059   47.135   35.325
