19
Created with MDTraj 1.9.2, 2019-03-26
O1   37.231   47.638   33.075
C1   38.310   48.086   33.414
O2   39.025   48.763   32.692
C2   38.888   47.711   34.740
C3   39.850   46.509   34.751
C4   39.425   45.337   33.923
C5   38.666   44.344   34.440
C6   39.998   45.307   32.545
O3   40.422   46.334   32.019
H1   38.353   43.536   33.783
H2   38.366   44.404   35.483
C7   39.963   43.982   31.835
H3   40.747   43.387   32.308
H4   39.001   43.467   31.884
H5   40.260   44.125   30.794
H6   39.965   46.110   35.761
H7   40.870   46.834   34.540
H8   39.468   48.549   35.132
H9   38.046   47.483   35.398
