19
Created with MDTraj 1.9.2, 2019-03-26
O1   37.245   48.303   33.080
C1   38.429   48.197   33.329
O2   39.290   48.516   32.523
C2   38.756   47.665   34.722
C3   39.821   46.541   34.767
C4   39.442   45.282   33.959
C5   38.807   44.256   34.579
C6   40.077   45.196   32.540
O3   40.723   46.175   32.198
H1   38.606   43.318   34.068
H2   38.518   44.413   35.615
C7   39.866   43.975   31.715
H3   40.089   43.084   32.305
H4   38.837   44.071   31.363
H5   40.576   43.934   30.886
H6   39.939   46.251   35.813
H7   40.811   46.953   34.561
H8   39.126   48.543   35.255
H9   37.896   47.232   35.237
