19
Created with MDTraj 1.9.2, 2019-03-26
O1   37.054   48.101   33.316
C1   38.235   48.096   33.519
O2   38.949   48.574   32.660
C2   38.836   47.622   34.802
C3   39.866   46.543   34.633
C4   39.374   45.360   33.840
C5   38.674   44.372   34.481
C6   39.962   45.319   32.445
O3   40.386   46.331   31.904
H1   38.231   43.552   33.922
H2   38.504   44.409   35.554
C7   40.074   43.938   31.785
H3   39.075   43.497   31.804
H4   40.430   44.015   30.756
H5   40.700   43.271   32.381
H6   40.178   46.143   35.600
H7   40.808   46.952   34.262
H8   39.395   48.442   35.259
H9   38.124   47.369   35.591
