19
Created with MDTraj 1.9.2, 2019-03-26
O1   37.132   47.643   33.213
C1   38.279   47.958   33.451
O2   39.030   48.427   32.620
C2   38.889   47.627   34.816
C3   39.942   46.507   34.705
C4   39.484   45.324   33.899
C5   38.482   44.523   34.321
C6   39.998   45.320   32.528
O3   40.461   46.284   31.941
H1   38.247   43.624   33.756
H2   37.929   44.623   35.252
C7   40.082   44.000   31.899
H3   40.579   43.285   32.558
H4   39.045   43.703   31.728
H5   40.562   44.095   30.923
H6   40.083   46.197   35.743
H7   40.904   46.953   34.445
H8   39.551   48.440   35.118
H9   38.173   47.371   35.601
