19
Created with MDTraj 1.9.2, 2019-03-26
O1   37.116   48.185   33.338
C1   38.325   48.181   33.476
O2   39.089   48.500   32.585
C2   38.787   47.605   34.776
C3   39.869   46.580   34.677
C4   39.527   45.284   33.945
C5   38.989   44.262   34.550
C6   39.953   45.329   32.502
O3   40.517   46.305   31.973
H1   38.701   43.355   34.024
H2   38.631   44.396   35.567
C7   39.835   44.032   31.725
H3   38.822   43.771   31.413
H4   40.552   43.885   30.915
H5   40.106   43.216   32.399
H6   40.220   46.278   35.667
H7   40.818   46.997   34.332
H8   39.050   48.529   35.295
H9   37.948   47.217   35.358
