19
Created with MDTraj 1.9.2, 2019-03-26
O1   37.169   48.184   33.129
C1   38.347   48.110   33.382
O2   39.148   48.537   32.561
C2   38.767   47.604   34.765
C3   39.890   46.530   34.770
C4   39.544   45.297   33.916
C5   38.964   44.268   34.537
C6   40.039   45.288   32.519
O3   40.459   46.274   31.925
H1   38.704   43.321   34.072
H2   38.681   44.330   35.585
C7   39.838   43.977   31.749
H3   38.758   43.819   31.732
H4   40.230   44.151   30.745
H5   40.417   43.198   32.251
H6   40.012   46.258   35.821
H7   40.815   46.982   34.407
H8   39.112   48.525   35.240
H9   37.959   47.253   35.410
