19
Created with MDTraj 1.9.2, 2019-03-26
O1   36.975   47.997   33.351
C1   38.184   48.013   33.437
O2   38.818   48.562   32.513
C2   38.789   47.583   34.788
C3   39.961   46.539   34.720
C4   39.615   45.351   33.916
C5   38.977   44.366   34.605
C6   40.025   45.231   32.446
O3   40.494   46.136   31.851
H1   38.438   43.561   34.113
H2   38.718   44.564   35.642
C7   39.906   43.970   31.694
H3   40.468   44.054   30.761
H4   40.382   43.106   32.163
H5   38.828   43.862   31.560
H6   40.237   46.188   35.716
H7   40.830   47.109   34.384
H8   39.197   48.421   35.358
H9   38.012   47.292   35.497
