18
Created with MDTraj 1.9.2, 2019-03-26
O1   37.063   48.319   33.498
C1   38.270   48.196   33.603
O2   39.073   48.459   32.732
C2   38.798   47.525   34.899
C3   40.005   46.655   34.604
C4   39.658   45.414   33.857
C5   38.752   44.523   34.417
C6   39.997   45.303   32.374
O3   40.337   46.307   31.694
H1   38.286   43.702   33.878
H2   38.360   44.616   35.427
C7   39.961   43.868   31.772
H3   39.017   43.354   31.575
H4   40.703   43.724   30.984
H5   40.334   43.241   32.584
H6   40.456   46.299   35.533
H7   40.786   47.194   34.064
H9   37.964   46.967   35.328
