18
Created with MDTraj 1.9.2, 2019-03-26
O1   37.305   47.703   32.954
C1   38.372   48.060   33.372
O2   39.236   48.543   32.598
C2   38.794   47.611   34.702
C3   39.937   46.553   34.761
C4   39.654   45.289   34.070
C5   39.066   44.231   34.636
C6   40.036   45.327   32.606
O3   40.532   46.243   32.030
H1   38.842   43.336   34.061
H2   38.612   44.333   35.619
C7   39.678   44.128   31.669
H3   38.588   44.074   31.625
H4   40.196   44.040   30.711
H5   40.122   43.388   32.338
H6   40.114   46.400   35.827
H7   40.853   47.028   34.403
H9   37.903   47.178   35.161
