18
Created with MDTraj 1.9.2, 2019-03-26
O1   37.161   47.733   33.129
C1   38.310   48.015   33.495
O2   39.164   48.603   32.808
C2   38.760   47.536   34.820
C3   39.965   46.585   34.700
C4   39.618   45.315   34.010
C5   39.003   44.371   34.699
C6   39.955   45.311   32.495
O3   40.366   46.323   31.886
H1   38.739   43.405   34.276
H2   38.701   44.569   35.724
C7   39.829   44.035   31.651
H3   39.960   44.267   30.592
H4   40.478   43.206   31.941
H5   38.816   43.641   31.761
H6   40.279   46.504   35.743
H7   40.824   47.011   34.178
H9   37.877   47.044   35.233
