18
Created with MDTraj 1.9.2, 2019-03-26
O1   37.475   47.814   32.863
C1   38.542   48.060   33.383
O2   39.469   48.598   32.755
C2   38.756   47.607   34.757
C3   39.878   46.558   34.887
C4   39.570   45.349   33.989
C5   38.874   44.332   34.547
C6   39.989   45.298   32.519
O3   40.503   46.302   31.947
H1   38.589   43.434   34.004
H2   38.485   44.473   35.552
C7   39.805   44.061   31.732
H3   40.403   43.297   32.234
H4   38.796   43.655   31.827
H5   40.073   44.055   30.673
H6   40.067   46.341   35.940
H7   40.756   47.083   34.504
H9   37.866   47.066   35.085
