18
Created with MDTraj 1.9.2, 2019-03-26
O1   36.998   47.919   33.409
C1   38.193   47.909   33.479
O2   38.819   48.530   32.585
C2   38.890   47.684   34.788
C3   39.939   46.572   34.697
C4   39.392   45.392   33.864
C5   38.860   44.323   34.489
C6   39.900   45.325   32.439
O3   40.359   46.284   31.857
H1   38.614   43.475   33.855
H2   38.630   44.384   35.550
C7   39.923   43.953   31.761
H3   40.459   43.898   30.811
H4   40.442   43.249   32.414
H5   38.884   43.658   31.600
H6   40.144   46.359   35.748
H7   40.835   47.101   34.364
H9   38.148   47.388   35.533
