18
Created with MDTraj 1.9.2, 2019-03-26
O1   37.070   48.162   33.309
C1   38.330   48.179   33.428
O2   39.148   48.419   32.527
C2   38.786   47.680   34.793
C3   39.846   46.557   34.768
C4   39.566   45.326   33.953
C5   38.998   44.267   34.519
C6   40.065   45.251   32.525
O3   40.495   46.218   31.963
H1   38.798   43.305   34.054
H2   38.568   44.314   35.517
C7   39.841   43.941   31.737
H3   38.772   43.725   31.689
H4   40.246   44.179   30.752
H5   40.440   43.130   32.157
H6   39.970   46.266   35.814
H7   40.778   46.990   34.399
H9   37.879   47.447   35.355
