18
Created with MDTraj 1.9.2, 2019-03-26
O1   37.233   47.927   32.866
C1   38.371   47.993   33.306
O2   39.323   48.317   32.543
C2   38.816   47.594   34.697
C3   39.907   46.541   34.853
C4   39.594   45.341   34.046
C5   38.797   44.386   34.588
C6   40.083   45.287   32.623
O3   40.873   46.156   32.139
H1   38.580   43.467   34.052
H2   38.434   44.347   35.612
C7   39.745   44.137   31.735
H3   40.167   43.238   32.190
H4   38.697   43.931   31.508
H5   40.300   44.229   30.799
H6   39.945   46.334   35.924
H7   40.844   47.037   34.591
H9   37.899   47.231   35.166
