18
Created with MDTraj 1.9.2, 2019-03-26
O1   37.041   48.524   33.369
C1   38.220   48.315   33.581
O2   39.030   48.467   32.647
C2   38.703   47.554   34.831
C3   39.964   46.678   34.629
C4   39.581   45.347   33.939
C5   38.893   44.322   34.564
C6   40.016   45.178   32.518
O3   40.475   46.143   31.952
H1   38.780   43.343   34.106
H2   38.655   44.349   35.624
C7   39.952   43.925   31.755
H3   40.430   43.946   30.773
H4   40.165   43.068   32.396
H5   38.892   43.880   31.495
H6   40.405   46.421   35.594
H7   40.784   47.096   34.040
H9   37.842   46.995   35.204
