18
Created with MDTraj 1.9.2, 2019-03-26
O1   36.929   47.823   33.451
C1   38.113   47.982   33.585
O2   38.774   48.426   32.659
C2   38.909   47.750   34.875
C3   39.914   46.569   34.702
C4   39.511   45.337   33.899
C5   38.778   44.369   34.464
C6   40.054   45.326   32.449
O3   40.428   46.317   31.844
H1   38.404   43.523   33.892
H2   38.529   44.377   35.523
C7   39.971   43.976   31.743
H3   40.493   43.986   30.784
H4   40.487   43.222   32.341
H5   38.956   43.581   31.654
H6   40.207   46.284   35.715
H7   40.769   46.997   34.174
H9   38.207   47.381   35.625
