18
Created with MDTraj 1.9.2, 2019-03-26
O1   37.241   48.228   33.129
C1   38.395   48.234   33.494
O2   39.222   48.557   32.694
C2   38.790   47.675   34.863
C3   39.832   46.525   34.736
C4   39.499   45.311   33.843
C5   38.725   44.333   34.403
C6   40.033   45.192   32.532
O3   40.532   46.190   32.017
H1   38.428   43.463   33.822
H2   38.337   44.366   35.418
C7   39.995   43.867   31.765
H3   40.111   43.082   32.516
H4   38.998   43.845   31.322
H5   40.854   43.784   31.096
H6   40.091   46.226   35.754
H7   40.723   47.017   34.341
H9   37.853   47.467   35.386
