18
Created with MDTraj 1.9.2, 2019-03-26
O1   37.002   48.576   33.504
C1   38.171   48.139   33.484
O2   38.872   48.081   32.445
C2   38.764   47.653   34.817
C3   39.918   46.619   34.699
C4   39.596   45.328   33.926
C5   38.848   44.348   34.477
C6   40.164   45.191   32.568
O3   40.884   46.056   32.065
H1   38.612   43.423   33.970
H2   38.448   44.459   35.474
C7   39.911   43.946   31.725
H3   38.853   43.686   31.711
H4   40.234   44.098   30.695
H5   40.483   43.114   32.132
H6   40.192   46.322   35.714
H7   40.823   47.105   34.329
H9   37.962   47.230   35.418
