18
Created with MDTraj 1.9.2, 2019-03-26
O1   37.142   48.192   33.323
C1   38.334   48.092   33.549
O2   39.128   48.346   32.651
C2   38.806   47.589   34.901
C3   39.947   46.569   34.664
C4   39.530   45.371   33.860
C5   38.549   44.560   34.341
C6   40.102   45.165   32.507
O3   40.501   46.168   31.941
H1   38.176   43.674   33.834
H2   37.990   44.806   35.240
C7   40.083   43.814   31.875
H3   40.665   43.120   32.484
H4   39.068   43.538   31.582
H5   40.560   43.989   30.908
H6   40.452   46.287   35.591
H7   40.771   47.126   34.214
H9   37.911   47.201   35.390
