18
Created with MDTraj 1.9.2, 2019-03-26
O1   37.185   48.303   33.073
C1   38.380   48.189   33.440
O2   39.346   48.457   32.680
C2   38.722   47.605   34.762
C3   39.896   46.583   34.776
C4   39.505   45.361   33.926
C5   38.777   44.358   34.504
C6   40.039   45.264   32.541
O3   40.633   46.170   31.941
H1   38.485   43.490   33.918
H2   38.340   44.406   35.498
C7   39.914   43.901   31.746
H3   39.990   43.070   32.451
H4   38.980   43.901   31.180
H5   40.759   43.782   31.065
H6   40.123   46.320   35.811
H7   40.851   47.042   34.511
H9   37.819   47.301   35.295
