18
Created with MDTraj 1.9.2, 2019-03-26
O1   37.228   47.553   33.201
C1   38.321   47.941   33.487
O2   39.061   48.399   32.702
C2   38.832   47.663   34.896
C3   39.945   46.566   34.752
C4   39.472   45.410   33.920
C5   38.498   44.570   34.342
C6   40.091   45.273   32.566
O3   40.576   46.268   31.978
H1   38.150   43.722   33.757
H2   37.928   44.682   35.260
C7   40.056   43.969   31.882
H3   40.611   43.153   32.349
H4   39.047   43.583   31.717
H5   40.436   44.053   30.862
H6   40.423   46.219   35.671
H7   40.811   47.041   34.285
H9   38.004   47.342   35.532
