18
Created with MDTraj 1.9.2, 2019-03-26
O1   37.141   47.998   33.257
C1   38.343   48.170   33.568
O2   39.123   48.336   32.635
C2   38.796   47.718   34.934
C3   39.854   46.602   34.663
C4   39.418   45.414   33.833
C5   38.744   44.392   34.462
C6   40.003   45.250   32.438
O3   40.566   46.194   31.948
H1   38.458   43.432   34.042
H2   38.599   44.487   35.535
C7   39.938   43.909   31.736
H3   38.943   43.525   31.502
H4   40.366   44.035   30.739
H5   40.470   43.145   32.306
H6   40.245   46.295   35.636
H7   40.695   47.175   34.267
H9   37.961   47.287   35.490
