18
Created with MDTraj 1.9.2, 2019-03-26
O1   37.037   48.127   33.222
C1   38.258   48.047   33.394
O2   39.020   48.377   32.493
C2   38.778   47.654   34.729
C3   39.922   46.619   34.779
C4   39.606   45.305   34.031
C5   39.125   44.233   34.617
C6   39.981   45.279   32.543
O3   40.626   46.184   31.983
H1   38.938   43.320   34.057
H2   38.773   44.166   35.644
C7   39.751   44.084   31.704
H3   40.132   44.047   30.681
H4   40.152   43.178   32.163
H5   38.668   44.002   31.588
H6   40.127   46.433   35.835
H7   40.856   47.092   34.469
H9   37.931   47.255   35.290
