18
Created with MDTraj 1.9.2, 2019-03-26
O1   37.049   48.284   33.599
C1   38.257   48.277   33.603
O2   38.868   48.350   32.557
C2   38.802   47.640   34.892
C3   39.896   46.648   34.576
C4   39.505   45.393   33.879
C5   38.883   44.419   34.516
C6   39.968   45.228   32.499
O3   40.379   46.207   31.870
H1   38.653   43.457   34.067
H2   38.612   44.545   35.561
C7   39.939   43.858   31.759
H3   40.170   44.024   30.705
H4   40.769   43.291   32.185
H5   38.942   43.423   31.857
H6   40.297   46.291   35.527
H7   40.670   47.135   33.979
H9   38.117   46.940   35.376
