18
Created with MDTraj 1.9.2, 2019-03-26
O1   37.105   47.487   33.258
C1   38.216   47.961   33.458
O2   38.940   48.462   32.605
C2   38.839   47.665   34.834
C3   39.961   46.588   34.784
C4   39.577   45.343   33.979
C5   38.715   44.402   34.550
C6   40.083   45.294   32.482
O3   40.586   46.288   31.976
H1   38.315   43.580   33.962
H2   38.432   44.487   35.596
C7   39.935   44.010   31.683
H3   38.878   43.969   31.414
H4   40.545   43.928   30.780
H5   40.190   43.159   32.318
H6   40.387   46.367   35.765
H7   40.838   47.038   34.315
H9   38.035   47.314   35.484
