18
Created with MDTraj 1.9.2, 2019-03-26
O1   37.275   48.590   33.123
C1   38.454   48.427   33.427
O2   39.389   48.791   32.723
C2   38.703   47.672   34.759
C3   39.799   46.590   34.698
C4   39.472   45.330   33.880
C5   38.972   44.259   34.542
C6   39.958   45.240   32.435
O3   40.313   46.249   31.874
H1   38.722   43.302   34.091
H2   38.742   44.261   35.604
C7   39.931   43.896   31.770
H3   40.802   43.329   32.103
H4   39.042   43.332   32.059
H5   39.930   43.847   30.679
H6   39.865   46.216   35.722
H7   40.771   46.967   34.373
H9   37.769   47.224   35.104
