18
Created with MDTraj 1.9.2, 2019-03-26
O1   37.276   47.525   32.996
C1   38.311   48.026   33.393
O2   39.161   48.485   32.672
C2   38.786   47.632   34.712
C3   39.920   46.621   34.790
C4   39.573   45.363   33.992
C5   39.055   44.256   34.629
C6   39.922   45.369   32.495
O3   40.552   46.331   32.048
H1   38.813   43.281   34.213
H2   38.935   44.322   35.707
C7   39.713   44.115   31.684
H3   40.200   44.162   30.708
H4   40.048   43.255   32.268
H5   38.656   43.982   31.444
H6   39.999   46.339   35.842
H7   40.848   47.029   34.385
H9   37.922   47.305   35.294
