18
Created with MDTraj 1.9.2, 2019-03-26
O1   37.222   48.055   33.161
C1   38.370   48.077   33.382
O2   39.256   48.332   32.573
C2   38.770   47.652   34.745
C3   39.864   46.583   34.769
C4   39.529   45.394   33.941
C5   38.789   44.387   34.503
C6   40.179   45.216   32.607
O3   40.965   46.045   32.232
H1   38.512   43.465   33.998
H2   38.388   44.472   35.510
C7   39.834   44.018   31.768
H3   40.204   43.093   32.214
H4   38.763   43.941   31.569
H5   40.348   44.183   30.819
H6   40.104   46.215   35.769
H7   40.836   46.953   34.437
H9   37.882   47.257   35.242
