18
Created with MDTraj 1.9.2, 2019-03-26
O1   37.303   48.342   33.004
C1   38.415   48.246   33.434
O2   39.353   48.382   32.627
C2   38.695   47.590   34.782
C3   39.874   46.557   34.771
C4   39.626   45.307   33.956
C5   38.933   44.307   34.552
C6   40.130   45.253   32.580
O3   40.704   46.181   31.972
H1   38.525   43.466   33.998
H2   38.583   44.408   35.577
C7   39.834   44.011   31.713
H3   40.243   43.183   32.295
H4   38.796   43.673   31.678
H5   40.319   44.128   30.741
H6   39.892   46.284   35.828
H7   40.840   46.997   34.516
H9   37.787   47.112   35.155
