18
Created with MDTraj 1.9.2, 2019-03-26
O1   37.071   48.300   33.221
C1   38.264   48.120   33.417
O2   39.120   48.390   32.596
C2   38.739   47.586   34.817
C3   39.904   46.649   34.714
C4   39.530   45.346   33.894
C5   39.001   44.288   34.545
C6   39.849   45.274   32.468
O3   40.269   46.271   31.853
H1   38.682   43.336   34.129
H2   38.862   44.386   35.618
C7   39.859   43.975   31.724
H3   40.528   44.077   30.867
H4   40.247   43.165   32.345
H5   38.816   43.750   31.494
H6   40.284   46.302   35.677
H7   40.809   47.148   34.360
H9   37.874   47.162   35.331
