18
Created with MDTraj 1.9.2, 2019-03-26
O1   37.082   48.063   33.382
C1   38.279   47.967   33.574
O2   39.034   48.356   32.738
C2   38.823   47.605   34.806
C3   39.977   46.599   34.675
C4   39.543   45.408   33.819
C5   38.789   44.456   34.428
C6   40.029   45.288   32.440
O3   40.562   46.235   31.941
H1   38.385   43.626   33.854
H2   38.401   44.552   35.439
C7   39.930   43.916   31.815
H3   38.887   43.612   31.711
H4   40.381   43.995   30.823
H5   40.476   43.144   32.361
H6   40.251   46.332   35.698
H7   40.799   47.179   34.251
H9   38.055   47.097   35.394
