18
Created with MDTraj 1.9.2, 2019-03-26
O1   37.149   47.568   33.200
C1   38.255   47.977   33.440
O2   39.009   48.437   32.558
C2   38.883   47.717   34.770
C3   39.945   46.562   34.762
C4   39.549   45.346   34.007
C5   38.963   44.230   34.592
C6   39.957   45.335   32.515
O3   40.432   46.348   31.954
H1   38.680   43.363   34.000
H2   38.792   44.293   35.664
C7   39.798   44.096   31.747
H3   40.188   44.194   30.732
H4   40.307   43.237   32.189
H5   38.732   43.881   31.638
H6   40.155   46.285   35.798
H7   40.877   46.980   34.375
H9   38.022   47.385   35.354
