18
Created with MDTraj 1.9.2, 2019-03-26
O1   37.218   47.749   33.048
C1   38.376   48.043   33.421
O2   39.134   48.550   32.660
C2   38.838   47.764   34.762
C3   39.918   46.603   34.750
C4   39.568   45.336   33.958
C5   39.081   44.182   34.474
C6   39.854   45.355   32.508
O3   40.321   46.319   31.897
H1   38.922   43.248   33.941
H2   38.871   43.994   35.524
C7   39.696   44.065   31.809
H3   40.155   44.063   30.818
H4   40.256   43.291   32.338
H5   38.619   43.889   31.778
H6   40.179   46.452   35.799
H7   40.831   47.002   34.304
H9   37.960   47.398   35.298
