18
Created with MDTraj 1.9.2, 2019-03-26
O1   37.304   48.260   33.118
C1   38.514   48.294   33.434
O2   39.362   48.748   32.742
C2   38.798   47.625   34.773
C3   39.914   46.599   34.684
C4   39.449   45.332   33.889
C5   38.761   44.316   34.475
C6   39.978   45.255   32.471
O3   40.408   46.246   31.954
H1   38.414   43.454   33.910
H2   38.463   44.337   35.520
C7   39.932   43.890   31.802
H3   40.319   43.092   32.439
H4   38.863   43.728   31.649
H5   40.653   43.811   30.986
H6   40.019   46.311   35.732
H7   40.787   47.170   34.362
H9   37.870   47.102   35.012
