18
Created with MDTraj 1.9.2, 2019-03-26
O1   37.117   48.252   33.289
C1   38.305   48.058   33.402
O2   39.104   48.442   32.582
C2   38.810   47.607   34.778
C3   39.922   46.557   34.724
C4   39.532   45.348   33.895
C5   38.640   44.441   34.413
C6   40.156   45.224   32.470
O3   40.741   46.196   31.938
H1   38.504   43.491   33.902
H2   38.197   44.507   35.403
C7   39.986   43.957   31.791
H3   40.460   43.205   32.425
H4   38.933   43.681   31.872
H5   40.351   44.001   30.763
H6   40.137   46.149   35.714
H7   40.903   46.981   34.501
H9   37.924   47.306   35.341
