18
Created with MDTraj 1.9.2, 2019-03-26
O1   37.129   48.138   33.207
C1   38.333   48.057   33.393
O2   39.136   48.403   32.519
C2   38.864   47.572   34.788
C3   39.911   46.545   34.799
C4   39.490   45.379   33.944
C5   38.681   44.428   34.600
C6   40.030   45.244   32.554
O3   40.667   46.215   32.026
H1   38.218   43.585   34.094
H2   38.264   44.641   35.581
C7   39.993   43.948   31.711
H3   40.656   43.216   32.176
H4   38.949   43.672   31.545
H5   40.413   44.073   30.711
H6   40.127   46.187   35.807
H7   40.872   46.916   34.435
H9   37.976   47.205   35.307
