18
Created with MDTraj 1.9.2, 2019-03-26
O1   37.224   47.719   33.143
C1   38.359   48.045   33.445
O2   39.197   48.396   32.643
C2   38.810   47.723   34.838
C3   39.908   46.548   34.762
C4   39.457   45.301   33.932
C5   38.557   44.481   34.437
C6   40.019   45.249   32.508
O3   40.583   46.252   31.970
H1   38.214   43.611   33.884
H2   38.154   44.547   35.444
C7   40.044   43.968   31.791
H3   40.421   43.176   32.442
H4   39.047   43.640   31.489
H5   40.539   44.170   30.839
H6   40.171   46.267   35.784
H7   40.832   46.980   34.374
H9   37.975   47.319   35.414
