18
Created with MDTraj 1.9.2, 2019-03-26
O1   37.444   48.107   32.893
C1   38.564   48.219   33.346
O2   39.483   48.681   32.672
C2   38.801   47.741   34.710
C3   39.763   46.564   34.837
C4   39.464   45.297   33.985
C5   38.986   44.158   34.514
C6   39.876   45.318   32.521
O3   40.314   46.300   31.987
H1   38.882   43.216   33.982
H2   38.768   44.105   35.578
C7   39.805   43.979   31.777
H3   40.345   43.261   32.397
H4   38.761   43.685   31.656
H5   40.268   44.131   30.799
H6   39.622   46.102   35.816
H7   40.768   46.959   34.676
H9   37.791   47.504   35.052
