18
Created with MDTraj 1.9.2, 2019-03-26
O1   37.087   47.998   33.407
C1   38.266   48.147   33.585
O2   39.010   48.562   32.774
C2   38.797   47.610   34.859
C3   39.943   46.621   34.695
C4   39.517   45.394   33.922
C5   38.642   44.474   34.458
C6   40.067   45.255   32.479
O3   40.557   46.173   31.889
H1   38.463   43.558   33.901
H2   38.212   44.508   35.455
C7   40.008   43.879   31.715
H3   38.936   43.688   31.794
H4   40.375   43.823   30.688
H5   40.544   43.120   32.287
H6   40.466   46.422   35.633
H7   40.801   47.133   34.253
H9   38.034   47.017   35.367
