18
Created with MDTraj 1.9.2, 2019-03-26
O1   36.987   47.654   33.497
C1   38.178   47.938   33.566
O2   38.808   48.270   32.530
C2   38.849   47.675   34.827
C3   40.001   46.643   34.743
C4   39.565   45.447   33.893
C5   38.761   44.456   34.428
C6   40.097   45.298   32.515
O3   40.679   46.167   31.937
H1   38.523   43.543   33.888
H2   38.513   44.400   35.485
C7   39.833   44.021   31.755
H3   40.340   44.042   30.788
H4   40.388   43.216   32.241
H5   38.759   43.838   31.678
H6   40.243   46.421   35.785
H7   40.897   47.045   34.266
H9   38.204   47.181   35.556
