18
Created with MDTraj 1.9.2, 2019-03-26
O1   37.148   48.195   33.162
C1   38.293   48.060   33.458
O2   39.146   48.297   32.599
C2   38.853   47.643   34.835
C3   39.955   46.568   34.749
C4   39.543   45.387   33.877
C5   38.700   44.449   34.352
C6   40.252   45.232   32.549
O3   40.835   46.164   31.972
H1   38.431   43.493   33.911
H2   38.274   44.554   35.346
C7   39.930   43.906   31.829
H3   40.312   42.955   32.207
H4   38.840   43.853   31.859
H5   40.334   44.013   30.821
H6   40.080   46.149   35.750
H7   40.806   47.205   34.500
H9   37.979   47.243   35.354
