18
Created with MDTraj 1.9.2, 2019-03-26
O1   37.396   48.437   32.905
C1   38.464   48.291   33.483
O2   39.495   48.499   32.824
C2   38.669   47.531   34.713
C3   39.888   46.600   34.760
C4   39.602   45.306   33.964
C5   38.956   44.288   34.578
C6   40.028   45.261   32.499
O3   40.654   46.158   31.957
H1   38.589   43.367   34.132
H2   38.574   44.445   35.583
C7   39.837   43.994   31.790
H3   40.302   43.125   32.262
H4   38.754   43.867   31.736
H5   40.263   43.981   30.784
H6   40.028   46.344   35.812
H7   40.738   47.113   34.305
H9   37.735   47.017   34.950
