18
Created with MDTraj 1.9.2, 2019-03-26
O1   37.126   48.337   33.221
C1   38.251   48.291   33.552
O2   39.132   48.551   32.725
C2   38.652   47.610   34.810
C3   39.892   46.585   34.668
C4   39.544   45.350   33.849
C5   38.998   44.317   34.567
C6   40.014   45.240   32.404
O3   40.408   46.263   31.840
H1   38.853   43.301   34.209
H2   39.056   44.413   35.648
C7   39.792   43.963   31.716
H3   40.106   43.990   30.671
H4   40.463   43.218   32.148
H5   38.758   43.671   31.914
H6   40.275   46.253   35.635
H7   40.762   47.047   34.197
H9   37.792   47.104   35.254
