18
Created with MDTraj 1.9.2, 2019-03-26
O1   37.279   47.898   32.998
C1   38.421   48.161   33.330
O2   39.237   48.659   32.503
C2   38.834   47.633   34.730
C3   39.782   46.511   34.779
C4   39.426   45.351   33.960
C5   38.790   44.299   34.533
C6   40.079   45.254   32.593
O3   40.804   46.160   32.244
H1   38.636   43.370   33.991
H2   38.444   44.362   35.562
C7   39.898   44.034   31.792
H3   39.936   43.056   32.277
H4   38.881   44.026   31.395
H5   40.555   44.057   30.920
H6   39.850   46.260   35.840
H7   40.734   46.907   34.419
H9   37.993   47.425   35.394
