18
Created with MDTraj 1.9.2, 2019-03-26
O1   37.293   48.353   32.971
C1   38.416   48.243   33.453
O2   39.359   48.387   32.678
C2   38.687   47.554   34.749
C3   39.911   46.652   34.764
C4   39.602   45.369   34.013
C5   38.844   44.364   34.544
C6   40.177   45.236   32.615
O3   40.835   46.080   32.045
H1   38.572   43.507   33.934
H2   38.424   44.414   35.545
C7   39.855   44.001   31.838
H3   40.165   43.025   32.217
H4   38.799   43.845   31.608
H5   40.265   44.038   30.826
H6   40.154   46.347   35.784
H7   40.766   47.127   34.280
H9   37.825   47.031   35.169
