18
Created with MDTraj 1.9.2, 2019-03-26
O1   36.954   47.995   33.332
C1   38.155   48.052   33.505
O2   38.857   48.478   32.600
C2   38.830   47.613   34.792
C3   39.988   46.600   34.722
C4   39.664   45.345   33.952
C5   38.979   44.298   34.535
C6   40.041   45.319   32.529
O3   40.426   46.306   31.874
H1   38.625   43.396   34.043
H2   38.533   44.392   35.522
C7   39.882   43.945   31.779
H3   40.173   44.106   30.739
H4   40.512   43.087   32.023
H5   38.835   43.657   31.668
H6   40.230   46.333   35.753
H7   40.870   47.132   34.360
H9   38.077   47.330   35.531
