18
Created with MDTraj 1.9.2, 2019-03-26
O1   36.960   47.806   33.345
C1   38.190   47.956   33.437
O2   38.868   48.303   32.535
C2   38.838   47.700   34.822
C3   39.919   46.561   34.771
C4   39.548   45.305   33.964
C5   38.853   44.322   34.547
C6   40.058   45.315   32.523
O3   40.595   46.292   31.995
H1   38.661   43.345   34.112
H2   38.637   44.480   35.601
C7   39.849   44.034   31.674
H3   40.401   44.151   30.739
H4   40.300   43.150   32.131
H5   38.777   43.921   31.500
H6   40.170   46.305   35.803
H7   40.844   46.946   34.338
H9   38.050   47.406   35.518
