18
Created with MDTraj 1.9.2, 2019-03-26
O1   37.226   47.559   32.865
C1   38.274   47.984   33.337
O2   39.051   48.523   32.625
C2   38.814   47.556   34.732
C3   39.998   46.600   34.829
C4   39.732   45.369   33.994
C5   38.986   44.365   34.561
C6   40.045   45.353   32.540
O3   40.649   46.314   32.037
H1   38.519   43.545   34.022
H2   38.776   44.420   35.626
C7   39.710   44.134   31.776
H3   38.662   43.852   31.658
H4   40.158   44.249   30.787
H5   40.163   43.282   32.286
H6   39.900   46.212   35.845
H7   40.945   47.030   34.498
H9   37.968   47.139   35.282
