18
Created with MDTraj 1.9.2, 2019-03-26
O1   37.028   47.992   33.344
C1   38.176   48.092   33.626
O2   38.955   48.446   32.769
C2   38.813   47.610   34.942
C3   40.012   46.611   34.622
C4   39.579   45.360   33.877
C5   38.668   44.532   34.422
C6   40.004   45.311   32.419
O3   40.466   46.262   31.844
H1   38.267   43.662   33.908
H2   38.346   44.662   35.451
C7   40.017   43.897   31.753
H3   39.018   43.599   31.426
H4   40.702   43.772   30.912
H5   40.296   43.112   32.459
H6   40.342   46.311   35.619
H7   40.773   47.199   34.105
H9   38.157   46.999   35.566
