18
Created with MDTraj 1.9.2, 2019-03-26
O1   37.280   48.616   33.275
C1   38.414   48.308   33.453
O2   39.226   48.338   32.565
C2   38.751   47.586   34.755
C3   39.848   46.589   34.614
C4   39.449   45.340   33.892
C5   38.787   44.361   34.532
C6   40.083   45.252   32.548
O3   40.516   46.180   31.989
H1   38.514   43.435   34.033
H2   38.284   44.589   35.469
C7   39.974   43.941   31.787
H3   40.345   43.201   32.498
H4   38.922   43.720   31.595
H5   40.676   44.002   30.953
H6   40.081   46.192   35.604
H7   40.812   46.983   34.284
H9   37.846   47.063   35.069
