18
Created with MDTraj 1.9.2, 2019-03-26
O1   37.178   47.752   33.071
C1   38.330   48.042   33.371
O2   39.065   48.543   32.541
C2   38.833   47.641   34.733
C3   39.916   46.560   34.776
C4   39.611   45.257   34.048
C5   39.096   44.207   34.630
C6   39.988   45.304   32.533
O3   40.265   46.363   31.958
H1   38.857   43.305   34.073
H2   38.830   44.236   35.684
C7   39.770   44.092   31.733
H3   40.026   44.306   30.693
H4   40.294   43.230   32.151
H5   38.694   43.906   31.760
H6   40.165   46.344   35.818
H7   40.818   47.041   34.392
H9   37.951   47.261   35.252
