18
Created with MDTraj 1.9.2, 2019-03-26
O1   37.211   47.996   33.094
C1   38.367   48.183   33.429
O2   39.236   48.558   32.630
C2   38.786   47.682   34.835
C3   39.864   46.595   34.762
C4   39.463   45.347   33.942
C5   38.669   44.396   34.481
C6   40.112   45.215   32.540
O3   40.756   46.190   32.123
H1   38.425   43.491   33.932
H2   38.242   44.435   35.480
C7   39.928   43.919   31.701
H3   40.262   43.036   32.250
H4   38.885   43.694   31.471
H5   40.620   43.956   30.857
H6   40.121   46.304   35.782
H7   40.755   47.071   34.346
H9   37.942   47.340   35.438
