18
Created with MDTraj 1.9.2, 2019-03-26
O1   36.986   47.551   33.366
C1   38.207   47.811   33.412
O2   38.777   48.324   32.483
C2   38.886   47.664   34.781
C3   40.033   46.591   34.756
C4   39.641   45.374   33.935
C5   38.853   44.397   34.488
C6   40.021   45.376   32.503
O3   40.491   46.365   31.958
H1   38.428   43.596   33.889
H2   38.555   44.322   35.530
C7   39.808   44.100   31.795
H3   40.303   44.089   30.821
H4   40.381   43.296   32.261
H5   38.753   43.836   31.692
H6   40.247   46.332   35.795
H7   41.016   46.972   34.471
H9   38.176   47.273   35.512
