18
Created with MDTraj 1.9.2, 2019-03-26
O1   37.243   48.212   33.077
C1   38.454   48.099   33.369
O2   39.369   48.528   32.667
C2   38.677   47.612   34.757
C3   39.841   46.591   34.777
C4   39.543   45.355   33.936
C5   39.049   44.257   34.590
C6   40.043   45.273   32.513
O3   40.460   46.244   31.880
H1   38.691   43.364   34.082
H2   38.899   44.304   35.665
C7   39.823   43.982   31.754
H3   38.784   43.647   31.760
H4   40.017   44.194   30.700
H5   40.418   43.113   32.043
H6   39.968   46.270   35.813
H7   40.797   47.070   34.552
H9   37.785   47.278   35.292
