18
Created with MDTraj 1.9.2, 2019-03-26
O1   37.239   47.650   32.964
C1   38.330   47.892   33.360
O2   39.165   48.405   32.584
C2   38.791   47.549   34.783
C3   39.942   46.567   34.781
C4   39.648   45.257   34.072
C5   38.902   44.318   34.696
C6   40.149   45.243   32.609
O3   40.705   46.227   32.075
H1   38.617   43.418   34.157
H2   38.602   44.391   35.738
C7   39.761   44.146   31.741
H3   38.697   44.287   31.538
H4   40.187   44.286   30.746
H5   40.116   43.185   32.120
H6   40.217   46.411   35.827
H7   40.815   47.011   34.299
H9   37.915   47.120   35.275
