18
Created with MDTraj 1.9.2, 2019-03-26
O1   37.293   47.500   32.976
C1   38.307   48.014   33.373
O2   39.097   48.607   32.613
C2   38.832   47.605   34.760
C3   39.926   46.555   34.779
C4   39.624   45.336   33.959
C5   38.909   44.369   34.576
C6   40.103   45.289   32.510
O3   40.501   46.344   32.009
H1   38.602   43.427   34.129
H2   38.808   44.418   35.657
C7   39.770   44.049   31.671
H3   40.617   43.821   31.020
H4   39.606   43.194   32.331
H5   38.828   44.349   31.209
H6   40.022   46.391   35.855
H7   40.908   46.905   34.454
H9   37.949   47.257   35.300
