18
Created with MDTraj 1.9.2, 2019-03-26
O1   37.461   47.840   32.801
C1   38.518   48.124   33.329
O2   39.468   48.570   32.699
C2   38.722   47.644   34.734
C3   39.929   46.585   34.797
C4   39.615   45.291   34.011
C5   38.946   44.268   34.542
C6   40.102   45.200   32.660
O3   40.679   46.140   32.169
H1   38.709   43.430   33.891
H2   38.530   44.307   35.546
C7   39.713   44.031   31.761
H3   40.141   43.100   32.139
H4   38.628   43.914   31.757
H5   40.144   44.193   30.771
H6   40.001   46.395   35.870
H7   40.814   47.140   34.479
H9   37.808   47.237   35.171
