18
Created with MDTraj 1.9.2, 2019-03-26
O1   37.069   47.863   33.313
C1   38.269   47.951   33.479
O2   38.996   48.141   32.495
C2   38.887   47.722   34.808
C3   39.920   46.585   34.804
C4   39.521   45.372   33.959
C5   38.637   44.435   34.391
C6   40.214   45.259   32.560
O3   40.789   46.228   32.030
H1   38.383   43.548   33.816
H2   37.968   44.566   35.238
C7   39.971   43.972   31.726
H3   40.271   43.087   32.292
H4   38.913   43.786   31.527
H5   40.607   43.957   30.839
H6   39.958   46.279   35.852
H7   40.920   46.998   34.657
H9   38.161   47.525   35.600
