18
Created with MDTraj 1.9.2, 2019-03-26
O1   37.191   47.938   33.119
C1   38.345   48.192   33.430
O2   39.040   48.790   32.578
C2   38.897   47.674   34.780
C3   39.833   46.506   34.796
C4   39.429   45.294   33.941
C5   38.706   44.259   34.431
C6   39.974   45.254   32.550
O3   40.394   46.261   31.991
H1   38.372   43.456   33.780
H2   38.101   44.346   35.330
C7   40.020   43.940   31.853
H3   40.503   43.145   32.426
H4   39.005   43.621   31.607
H5   40.660   44.138   30.990
H6   40.086   46.200   35.813
H7   40.767   46.858   34.353
H9   38.104   47.518   35.515
