18
Created with MDTraj 1.9.2, 2019-03-26
O1   37.347   47.146   33.182
C1   38.332   47.790   33.392
O2   38.953   48.422   32.574
C2   38.869   47.612   34.763
C3   39.942   46.599   34.844
C4   39.624   45.329   34.012
C5   38.884   44.388   34.586
C6   40.057   45.329   32.616
O3   40.689   46.252   32.105
H1   38.537   43.503   34.059
H2   38.493   44.603   35.577
C7   39.765   44.150   31.694
H3   40.620   44.065   31.021
H4   39.669   43.157   32.139
H5   38.849   44.223   31.103
H6   40.088   46.401   35.908
H7   40.843   47.072   34.448
H9   38.060   47.274   35.414
