18
Created with MDTraj 1.9.2, 2019-03-26
O1   37.155   47.768   33.137
C1   38.337   47.982   33.348
O2   39.117   48.303   32.515
C2   38.888   47.661   34.769
C3   39.906   46.549   34.866
C4   39.587   45.355   33.973
C5   38.756   44.439   34.433
C6   40.130   45.292   32.614
O3   40.730   46.192   32.078
H1   38.491   43.542   33.880
H2   38.182   44.511   35.353
C7   39.888   44.028   31.773
H3   40.490   43.220   32.194
H4   38.822   43.789   31.778
H5   40.182   44.040   30.722
H6   40.033   46.201   35.893
H7   40.833   47.045   34.570
H9   38.042   47.410   35.412
