18
Created with MDTraj 1.9.2, 2019-03-26
O1   37.267   47.944   33.051
C1   38.399   48.040   33.393
O2   39.243   48.551   32.724
C2   38.795   47.544   34.808
C3   39.964   46.548   34.755
C4   39.500   45.347   33.938
C5   38.696   44.434   34.520
C6   40.113   45.253   32.578
O3   40.646   46.217   32.102
H1   38.384   43.540   33.987
H2   38.193   44.526   35.479
C7   39.949   43.999   31.775
H3   40.590   43.207   32.167
H4   38.941   43.591   31.881
H5   40.085   44.235   30.718
H6   40.324   46.327   35.761
H7   40.777   47.035   34.212
H9   37.921   47.121   35.309
