18
Created with MDTraj 1.9.2, 2019-03-26
O1   37.337   48.352   32.967
C1   38.436   48.211   33.378
O2   39.449   48.463   32.711
C2   38.718   47.670   34.755
C3   39.758   46.546   34.756
C4   39.483   45.311   33.966
C5   38.887   44.275   34.595
C6   40.046   45.180   32.590
O3   40.575   46.183   32.032
H1   38.751   43.284   34.171
H2   38.437   44.422   35.573
C7   39.873   43.984   31.735
H3   40.367   43.129   32.202
H4   38.846   43.765   31.436
H5   40.385   44.093   30.777
H6   39.936   46.102   35.738
H7   40.658   47.045   34.392
H9   37.841   47.405   35.349
