18
Created with MDTraj 1.9.2, 2019-03-26
O1   37.145   48.271   33.459
C1   38.326   48.166   33.544
O2   39.002   48.399   32.615
C2   38.813   47.666   34.780
C3   39.934   46.586   34.686
C4   39.600   45.320   33.895
C5   38.852   44.353   34.517
C6   40.052   45.306   32.444
O3   40.595   46.245   31.873
H1   38.498   43.427   34.070
H2   38.435   44.498   35.510
C7   39.888   43.965   31.698
H3   38.908   43.483   31.729
H4   40.411   43.991   30.739
H5   40.419   43.244   32.322
H6   40.198   46.258   35.693
H7   40.781   47.095   34.221
H9   37.921   47.201   35.205
