18
Created with MDTraj 1.9.2, 2019-03-26
O1   37.173   48.075   33.166
C1   38.336   48.159   33.457
O2   39.138   48.552   32.635
C2   38.835   47.622   34.770
C3   39.913   46.517   34.766
C4   39.509   45.335   33.919
C5   38.653   44.417   34.480
C6   40.098   45.290   32.539
O3   40.596   46.270   31.958
H1   38.213   43.563   33.970
H2   38.189   44.640   35.437
C7   40.034   43.932   31.823
H3   40.399   43.167   32.512
H4   38.988   43.756   31.563
H5   40.634   44.004   30.914
H6   40.232   46.083   35.716
H7   40.779   46.923   34.239
H9   37.932   47.197   35.214
