18
Created with MDTraj 1.9.2, 2019-03-26
O1   37.260   48.350   33.011
C1   38.423   48.188   33.340
O2   39.238   48.358   32.425
C2   38.742   47.629   34.721
C3   39.854   46.494   34.787
C4   39.529   45.324   33.951
C5   38.852   44.274   34.498
C6   40.108   45.274   32.572
O3   40.826   46.163   32.043
H1   38.619   43.332   34.009
H2   38.508   44.434   35.517
C7   39.873   44.035   31.766
H3   39.920   43.133   32.379
H4   38.802   44.045   31.556
H5   40.574   43.996   30.929
H6   39.973   46.244   35.844
H7   40.787   46.991   34.516
H9   37.851   47.259   35.232
